          12
anatase.cel
Ti  0.000000000     0.9479150000      3.565293750      1.000000000     0.3900000000    
Ti  1.895830000      2.843745000      8.319018750      1.000000000     0.3900000000    
Ti  0.000000000      2.843745000      5.942156250      1.000000000     0.3900000000    
Ti  1.895830000     0.9479150000      1.188431250      1.000000000     0.3900000000    
O   0.000000000     0.9479150000      1.586417068      1.000000000     0.6100000000    
O   1.895830000      2.843745000      6.340142068      1.000000000     0.6100000000    
O   0.000000000      2.843745000      3.963279568      1.000000000     0.6100000000    
O   1.895830000     0.9479150000      8.717004568      1.000000000     0.6100000000    
O   1.895830000     0.9479150000      3.167307932      1.000000000     0.6100000000    
O   0.000000000      2.843745000      7.921032932      1.000000000     0.6100000000    
O   0.000000000     0.9479150000      5.544170432      1.000000000     0.6100000000    
O   1.895830000      2.843745000     0.7904454316      1.000000000     0.6100000000    
